# File generated by Flopy version 3.9.2 on 07/23/2025 at 20:05:23.
BEGIN options
  BUDGET  FILEOUT  example02_obleo.cbb
  HEAD  FILEOUT  example02_obleo.hds
END options

BEGIN period  1
  SAVE  HEAD  ALL
  SAVE  BUDGET  ALL
  PRINT  HEAD  LAST
END period  1

