# File generated by Flopy version 3.9.2 on 07/23/2025 at 20:05:23.
BEGIN options
  TIME_UNITS  years
END options

BEGIN dimensions
  NPER  1
END dimensions

BEGIN perioddata
       1.00000000  1       1.00000000
END perioddata

