# File generated by Flopy version 3.9.2 on 07/23/2025 at 20:05:23.
BEGIN options
  COMPLEXITY  simple
END options

