# File generated by Flopy version 3.9.2 on 07/23/2025 at 20:05:27.
BEGIN options
END options

BEGIN griddata
  iconvert
    CONSTANT  0
  ss
    CONSTANT  1.00000000E-05
  sy
    CONSTANT       0.25000000
END griddata

