# File generated by Flopy version 3.9.2 on 07/18/2025 at 16:52:20.
BEGIN options
  BUDGET  FILEOUT  example_2.cbb
  HEAD  FILEOUT  example_2.hds
END options

BEGIN period  1
  SAVE  HEAD  ALL
  SAVE  BUDGET  ALL
  PRINT  HEAD  LAST
END period  1

