# File generated by Flopy version 3.9.2 on 07/23/2025 at 20:05:24.
BEGIN options
END options

BEGIN timing
  TDIS6  example_2.tdis
END timing

BEGIN models
  gwf6  example_2.nam  example_2
END models

BEGIN exchanges
END exchanges

BEGIN solutiongroup  1
  ims6  example_2.ims  example_2
END solutiongroup  1

